@<TRIPOS>MOLECULE
ribavirin_ligand
 33 36 0 0 0
SMALL
GASTEIGER

@<TRIPOS>ATOM
      1 O1          1.3210   -4.2020    0.0000 O.2     1  ribavirin_ligand        -0.2982
      2 C1          0.8370   -3.3700    0.0000 C.2     1  ribavirin_ligand         0.1516
      3 C2          0.8340   -2.4070    0.0000 C.3     1  ribavirin_ligand         0.1444
      4 H1          1.7240   -2.9210    0.0000 H       1  ribavirin_ligand         0.0701
      5 O2          1.6750   -1.9150    0.0000 O.3     1  ribavirin_ligand        -0.3415
      6 C3          1.6680   -0.9630    0.0000 C.3     1  ribavirin_ligand         0.1721
      7 H2          2.5560   -0.4460    0.0000 H       1  ribavirin_ligand         0.0851
      8 C4          0.8340   -0.4820    0.0000 C.3     1  ribavirin_ligand         0.1349
      9 C5          0.0000   -1.9260    0.0000 C.3     1  ribavirin_ligand         0.1248
     10 H3         -0.5130   -2.8150    0.0000 H       1  ribavirin_ligand         0.0655
     11 O3         -0.8340   -1.4440    0.0000 O.3     1  ribavirin_ligand        -0.3397
     12 C6         -0.8400   -0.4920    0.0000 C.3     1  ribavirin_ligand         0.1715
     13 O4          0.0000    0.0000    0.0000 O.3     1  ribavirin_ligand        -0.3384
     14 C7         -1.7300    0.0210    0.0000 C.3     1  ribavirin_ligand         0.0063
     15 C8         -0.8480    0.5350    0.0000 C.3     1  ribavirin_ligand         0.0063
     16 N1          2.4930   -1.4390    0.0000 N.pl3   1  ribavirin_ligand        -0.1941
     17 C9          3.1660   -0.7660    0.0000 C.3     1  ribavirin_ligand         0.1341
     18 N2          4.0140   -1.1980    0.0000 N.2     1  ribavirin_ligand        -0.2068
     19 C10         3.8650   -2.1380    0.0000 C.1     1  ribavirin_ligand         0.1029
     20 N3          2.9250   -2.2870    0.0000 N.2     1  ribavirin_ligand        -0.1210
     21 C11         4.5380   -2.8110    0.0000 C.2     1  ribavirin_ligand         0.3070
     22 O5          4.2920   -3.7310    0.0000 O.2     1  ribavirin_ligand        -0.2590
     23 N4          5.4570   -2.5650    0.0000 N.am    1  ribavirin_ligand        -0.3172
     24 H4         -0.1590   -3.6403    0.0000 H       1  ribavirin_ligand         0.1055
     25 H5          1.3691    0.4446    0.0000 H       1  ribavirin_ligand         0.0668
     26 H6         -2.3478    0.0195    0.8737 H       1  ribavirin_ligand         0.0319
     27 H7         -2.6032    0.0189   -0.6184 H       1  ribavirin_ligand         0.0319
     28 H8         -0.5423    1.0718   -0.8737 H       1  ribavirin_ligand         0.0319
     29 H9         -0.4159    1.2938    0.6184 H       1  ribavirin_ligand         0.0319
     30 H10         3.0693   -0.1558    0.8737 H       1  ribavirin_ligand         0.0739
     31 H11         3.0671   -0.1414   -0.8632 H       1  ribavirin_ligand         0.0739
     32 H12         5.7120   -1.6141    0.0000 H       1  ribavirin_ligand         0.1459
     33 H13         6.1530   -3.2613    0.0000 H       1  ribavirin_ligand         0.1459
@<TRIPOS>BOND
     1     1     2    2
     2     2     3    1
     3     3     4    1
     4     3     9    1
     5     3     5    1
     6     5     6    1
     7     6     7    1
     8     6     8    1
     9     6    16    1
    10     8    13    1
    11     8     9    1
    12     9    10    1
    13     9    11    1
    14    11    12    1
    15    12    13    1
    16    12    14    1
    17    12    15    1
    18    16    20    1
    19    16    17    1
    20    17    18    1
    21    18    19    2
    22    19    20    2
    23    19    21    1
    24    21    22    2
    25    21    23   am
    26    14    15    1
    27     2    24    1
    28     8    25    1
    29    14    26    1
    30    14    27    1
    31    15    28    1
    32    15    29    1
    33    17    30    1
    34    17    31    1
    35    23    32    1
    36    23    33    1

