@<TRIPOS>MOLECULE
ribavirin_ligand
 34 37 0 0 0
SMALL
GASTEIGER

@<TRIPOS>ATOM
      1  O          1.3210   -4.2020    0.0000 O.2     0  ribavirin_ligand       -0.2982
      2  C          0.8370   -3.3700    0.0000 C.2     0  ribavirin_ligand        0.1516
      3  C          0.8340   -2.4070    0.0000 C.3     0  ribavirin_ligand        0.1442
      4  H          1.7240   -2.9210    0.0000 H       0  ribavirin_ligand        0.0700
      5  O          1.6750   -1.9150    0.0000 O.3     0  ribavirin_ligand       -0.3424
      6  C          1.6680   -0.9630    0.0000 C.3     0  ribavirin_ligand        0.1793
      7  H          2.5560   -0.4460    0.0000 H       0  ribavirin_ligand        0.0832
      8  C          0.8340   -0.4820    0.0000 C.3     0  ribavirin_ligand        0.1337
      9  C          0.0000   -1.9260    0.0000 C.3     0  ribavirin_ligand        0.1246
     10  H         -0.5130   -2.8150    0.0000 H       0  ribavirin_ligand        0.0655
     11  O         -0.8340   -1.4440    0.0000 O.3     0  ribavirin_ligand       -0.3397
     12  C         -0.8400   -0.4920    0.0000 C.3     0  ribavirin_ligand        0.1715
     13  O          0.0000    0.0000    0.0000 O.3     0  ribavirin_ligand       -0.3387
     14  C         -1.7300    0.0210    0.0000 C.3     0  ribavirin_ligand        0.0063
     15  C         -0.8480    0.5350    0.0000 C.3     0  ribavirin_ligand        0.0063
     16  N          2.4930   -1.4390    0.0000 N.3     0  ribavirin_ligand       -0.0793
     17  C          3.1660   -0.7660    0.0000 C.3     0  ribavirin_ligand        0.2206
     18  N          4.0140   -1.1980    0.0000 N.2     0  ribavirin_ligand       -0.0575
     19  C          3.8650   -2.1380    0.0000 C.2     0  ribavirin_ligand        0.3874
     20  N          2.9250   -2.2870    0.0000 N.pl3   0  ribavirin_ligand       -0.1432
     21  C          4.5380   -2.8110    0.0000 C.2     0  ribavirin_ligand        0.3266
     22  O          4.2920   -3.7310    0.0000 O.2     0  ribavirin_ligand       -0.2622
     23  N          5.4570   -2.5650    0.0000 N.am    0  ribavirin_ligand       -0.3192
     24 H          -0.1590   -3.6403    0.0000 H       0  ribavirin_ligand        0.1055
     25 H           1.3691    0.4446    0.0000 H       0  ribavirin_ligand        0.0665
     26 H          -2.3478    0.0195    0.8737 H       0  ribavirin_ligand        0.0319
     27 H          -2.6032    0.0189   -0.6184 H       0  ribavirin_ligand        0.0319
     28 H          -0.5423    1.0718   -0.8737 H       0  ribavirin_ligand        0.0319
     29 H          -0.4159    1.2938    0.6184 H       0  ribavirin_ligand        0.0319
     30 H           3.0693   -0.1558    0.8737 H       0  ribavirin_ligand        0.1003
     31 H           3.0671   -0.1414   -0.8632 H       0  ribavirin_ligand        0.1003
     32 H           2.4781   -3.1642    0.0000 H       0  ribavirin_ligand        0.3184
     33 H           5.7120   -1.6141    0.0000 H       0  ribavirin_ligand        0.1455
     34 H           6.1530   -3.2613    0.0000 H       0  ribavirin_ligand        0.1455
@<TRIPOS>BOND
     1     1     2    2
     2     2     3    1
     3     2    24    1
     4     3     4    1
     5     3     9    1
     6     3     5    1
     7     5     6    1
     8     6     7    1
     9     6     8    1
    10     6    16    1
    11     8    13    1
    12     8     9    1
    13     8    25    1
    14     9    10    1
    15     9    11    1
    16    11    12    1
    17    12    13    1
    18    12    14    1
    19    12    15    1
    20    14    15    1
    21    14    26    1
    22    14    27    1
    23    15    28    1
    24    15    29    1
    25    16    20    1
    26    16    17    1
    27    17    18    1
    28    17    30    1
    29    17    31    1
    30    18    19    2
    31    19    20    1
    32    19    21    1
    33    20    32    1
    34    21    22    2
    35    21    23   am
    36    23    33    1
    37    23    34    1
