@<TRIPOS>MOLECULE
ribav1
 103 108 0 0 0
SMALL
GASTEIGER

@<TRIPOS>ATOM
      1  N         12.2360   10.8820   64.1870 N.ar    1  ribav1       -0.3422
      2  C         10.9210   10.8640   63.8450 C.ar    1  ribav1        0.0345
      3  C         10.1830   10.1710   64.8360 C.ar    1  ribav1        0.0662
      4  C         11.1140    9.8290   65.8380 C.ar    1  ribav1        0.0200
      5  C         12.3780   10.2720   65.3900 C.ar    1  ribav1        0.0578
      6  C         13.3390   11.3690   63.3350 C.3     1  ribav1        0.0259
      7  C         13.7870   10.3930   62.2490 C.3     1  ribav1       -0.0084
      8  C         13.6490   10.9810   60.8330 C.3     1  ribav1        0.0659
      9  C         15.0350   11.0000   60.2050 C.3     1  ribav1        0.0006
     10  C         15.5120   12.4430   60.1430 C.3     1  ribav1        0.0743
     11  O         14.6630   13.1420   59.2600 O.3     1  ribav1       -0.3453
     12  C         13.2840   13.0010   59.6310 C.3     1  ribav1        0.1651
     13  O         13.0620   12.2820   60.8560 O.3     1  ribav1       -0.3458
     14  C         12.7180   14.3950   59.8110 C.3     1  ribav1       -0.0108
     15  C         12.5150   12.3560   58.4830 C.3     1  ribav1       -0.0108
     16  C         16.9900   12.5320   59.7310 C.3     1  ribav1        0.0714
     17  C         17.4920   13.9360   59.6300 C.2     1  ribav1        0.3118
     18  O         17.8910   14.4980   60.6360 O.2     1  ribav1       -0.2507
     19  O         17.5840   14.5400   58.4300 O.3     1  ribav1       -0.4322
     20  C         16.9970   15.7630   58.1880 C.3     1  ribav1        0.2341
     21  C         16.0190   15.7630   57.0030 C.3     1  ribav1        0.1456
     22  C         16.7870   15.3990   55.7570 C.3     1  ribav1        0.1157
     23  C         18.0590   16.2540   55.6320 C.3     1  ribav1        0.1202
     24  C         18.2820   17.2430   56.8080 C.3     1  ribav1        0.1869
     25  O         18.0230   16.7340   58.1120 O.3     1  ribav1       -0.3220
     26  O         14.9620   14.8740   57.2040 O.3     1  ribav1       -0.3829
     27  H         14.7470   14.5570   58.0960 H       1  ribav1        0.2102
     28  O         15.9620   15.4970   54.6320 O.3     1  ribav1       -0.3863
     29  H         15.1140   15.0260   54.6090 H       1  ribav1        0.2100
     30  O         18.0760   16.9530   54.4210 O.3     1  ribav1       -0.3860
     31  H         17.4960   17.7190   54.2890 H       1  ribav1        0.2100
     32  C         19.7020   17.7390   56.7650 C.2     1  ribav1        0.3367
     33  O         20.4310   17.4320   55.8350 O.2     1  ribav1       -0.2480
     34  O         20.1810   18.5210   57.7530 O.3     1  ribav1       -0.4788
     35  H         20.2620   18.1970   58.6280 H       1  ribav1        0.2951
     36  C         13.7150   10.0870   66.0630 C.ar    1  ribav1       -0.0007
     37  C         14.0970   10.9180   67.1310 C.ar    1  ribav1       -0.0499
     38  C         15.3270   10.7580   67.7710 C.ar    1  ribav1       -0.0258
     39  C         16.2040    9.7620   67.3470 C.ar    1  ribav1        0.1234
     40  C         15.8560    8.9380   66.2780 C.ar    1  ribav1       -0.0258
     41  F         17.3940    9.5970   67.9740 F       1  ribav1       -0.2055
     42  C         14.6230    9.1050   65.6400 C.ar    1  ribav1       -0.0499
     43  C         10.4360   11.6270   62.6270 C.3     1  ribav1       -0.0054
     44  C          9.9000   10.9010   61.4230 C.3     1  ribav1       -0.0573
     45  C          9.3860   12.6300   63.0690 C.3     1  ribav1       -0.0573
     46  C         10.8020    9.1520   67.1350 C.ar    1  ribav1       -0.0151
     47  C         10.7700    9.8920   68.3270 C.ar    1  ribav1       -0.0539
     48  C         10.4240    9.2890   69.5370 C.ar    1  ribav1       -0.0612
     49  C         10.0960    7.9330   69.5710 C.ar    1  ribav1       -0.0617
     50  C         10.1190    7.1820   68.3940 C.ar    1  ribav1       -0.0612
     51  C         10.4660    7.7890   67.1850 C.ar    1  ribav1       -0.0539
     52  C          8.7010    9.8780   64.8730 C.2     1  ribav1        0.2506
     53  O          8.1500    9.3810   63.9050 O.2     1  ribav1       -0.2698
     54  N          7.9640   10.2090   65.9610 N.am    1  ribav1       -0.2814
     55  H          8.4680   10.5560   66.7330 H       1  ribav1        0.1551
     56  C          6.5530   10.1190   66.1270 C.ar    1  ribav1        0.0337
     57  C          5.9080    8.9060   66.4160 C.ar    1  ribav1       -0.0405
     58  C          4.5140    8.8630   66.5410 C.ar    1  ribav1       -0.0600
     59  C          3.7600   10.0280   66.3800 C.ar    1  ribav1       -0.0616
     60  C          4.3950   11.2370   66.0880 C.ar    1  ribav1       -0.0600
     61  C          5.7860   11.2790   65.9560 C.ar    1  ribav1       -0.0405
     62 H          13.0186   12.2723   62.8594 H       1  ribav1        0.0493
     63 H          14.1804   11.5083   63.9812 H       1  ribav1        0.0493
     64 H          14.8131   10.1405   62.4170 H       1  ribav1        0.0307
     65 H          13.1549    9.5316   62.3058 H       1  ribav1        0.0307
     66 H          12.9898   10.3747   60.2476 H       1  ribav1        0.0598
     67 H          15.7099   10.4212   60.8004 H       1  ribav1        0.0315
     68 H          14.9995   10.5811   59.2211 H       1  ribav1        0.0315
     69 H          15.4596   12.8921   61.1128 H       1  ribav1        0.0603
     70 H          12.8672   14.9591   58.9141 H       1  ribav1        0.0281
     71 H          13.2162   14.8800   60.6243 H       1  ribav1        0.0281
     72 H          11.6709   14.3304   60.0217 H       1  ribav1        0.0281
     73 H          12.6929   12.9047   57.5818 H       1  ribav1        0.0281
     74 H          11.4684   12.3650   58.7053 H       1  ribav1        0.0281
     75 H          12.8441   11.3458   58.3564 H       1  ribav1        0.0281
     76 H          17.5774   12.0129   60.4592 H       1  ribav1        0.0403
     77 H          17.0747   12.0944   58.7583 H       1  ribav1        0.0403
     78 H          16.3511   16.0154   59.0029 H       1  ribav1        0.1085
     79 H          15.5881   16.7374   56.9041 H       1  ribav1        0.0683
     80 H          17.1064   14.3802   55.8270 H       1  ribav1        0.0648
     81 H          18.8678   15.5543   55.6649 H       1  ribav1        0.0652
     82 H          17.5608   18.0187   56.6563 H       1  ribav1        0.0742
     83 H          13.4550   11.6612   67.4480 H       1  ribav1        0.0625
     84 H          15.5861   11.3757   68.5561 H       1  ribav1        0.0646
     85 H          16.5080    8.2050   65.9576 H       1  ribav1        0.0646
     86 H          14.3768    8.4955   64.8444 H       1  ribav1        0.0625
     87 H          11.3529   12.0358   62.2569 H       1  ribav1        0.0358
     88 H           8.9665   10.4404   61.6706 H       1  ribav1        0.0236
     89 H          10.5988   10.1498   61.1191 H       1  ribav1        0.0236
     90 H           9.7536   11.5964   60.6231 H       1  ribav1        0.0236
     91 H           8.5190   12.1086   63.4173 H       1  ribav1        0.0236
     92 H           9.1186   13.2542   62.2421 H       1  ribav1        0.0236
     93 H           9.7802   13.2343   63.8592 H       1  ribav1        0.0236
     94 H          11.0057   10.8965   68.3085 H       1  ribav1        0.0624
     95 H          10.4107    9.8454   70.4060 H       1  ribav1        0.0618
     96 H           9.8369    7.4861   70.4644 H       1  ribav1        0.0618
     97 H           9.8796    6.1784   68.4175 H       1  ribav1        0.0618
     98 H          10.4757    7.2294   66.3179 H       1  ribav1        0.0624
     99 H           6.4625    8.0440   66.5366 H       1  ribav1        0.0636
    100 H           4.0429    7.9694   66.7524 H       1  ribav1        0.0618
    101 H           2.7331    9.9951   66.4769 H       1  ribav1        0.0618
    102 H           3.8383   12.0979   65.9699 H       1  ribav1        0.0618
    103 H           6.2519   12.1719   65.7307 H       1  ribav1        0.0636
@<TRIPOS>BOND
     1     1     6    1
     2     1     2   ar
     3     1     5   ar
     4     2    43    1
     5     2     3   ar
     6     3    52    1
     7     3     4   ar
     8     4     5   ar
     9     4    46    1
    10     5    36    1
    11     6     7    1
    12     6    62    1
    13     6    63    1
    14     7     8    1
    15     7    64    1
    16     7    65    1
    17     8     9    1
    18     8    13    1
    19     8    66    1
    20     9    10    1
    21     9    67    1
    22     9    68    1
    23    10    11    1
    24    10    16    1
    25    10    69    1
    26    11    12    1
    27    12    15    1
    28    12    14    1
    29    12    13    1
    30    14    70    1
    31    14    71    1
    32    14    72    1
    33    15    73    1
    34    15    74    1
    35    15    75    1
    36    16    17    1
    37    16    76    1
    38    16    77    1
    39    17    19    1
    40    17    18    2
    41    19    20    1
    42    20    21    1
    43    20    25    1
    44    20    78    1
    45    21    22    1
    46    21    26    1
    47    21    79    1
    48    22    28    1
    49    22    23    1
    50    22    80    1
    51    23    30    1
    52    23    24    1
    53    23    81    1
    54    24    32    1
    55    24    25    1
    56    24    82    1
    57    26    27    1
    58    28    29    1
    59    30    31    1
    60    32    33    2
    61    32    34    1
    62    34    35    1
    63    36    42   ar
    64    36    37   ar
    65    37    38   ar
    66    37    83    1
    67    38    39   ar
    68    38    84    1
    69    39    40   ar
    70    39    41    1
    71    40    42   ar
    72    40    85    1
    73    42    86    1
    74    43    44    1
    75    43    45    1
    76    43    87    1
    77    44    88    1
    78    44    89    1
    79    44    90    1
    80    45    91    1
    81    45    92    1
    82    45    93    1
    83    46    51   ar
    84    46    47   ar
    85    47    48   ar
    86    47    94    1
    87    48    49   ar
    88    48    95    1
    89    49    50   ar
    90    49    96    1
    91    50    51   ar
    92    50    97    1
    93    51    98    1
    94    52    53    2
    95    52    54   am
    96    54    56    1
    97    54    55    1
    98    56    61   ar
    99    56    57   ar
   100    57    58   ar
   101    57    99    1
   102    58    59   ar
   103    58   100    1
   104    59    60   ar
   105    59   101    1
   106    60    61   ar
   107    60   102    1
   108    61   103    1
