@<TRIPOS>MOLECULE
ribav2
 99 109 0 0 0
SMALL
GASTEIGER

@<TRIPOS>ATOM
      1  O         17.0810   12.7530   83.7010 O.2     1  UNK1       -0.2504
      2  C         17.3790   12.7160   82.7620 C.2     1  UNK1        0.3140
      3  O         17.8580   11.9230   82.4280 O.3     1  UNK1       -0.4555
      4  C         18.1560   11.8860   81.4890 C.3     1  UNK1        0.1368
      5  C         18.6050   11.4070   80.7550 C.3     1  UNK1       -0.0069
      6  C         18.5380   10.9910   81.6450 C.3     1  UNK1       -0.0069
      7  C         17.9750   12.6430   80.8840 C.3     1  UNK1        0.0879
      8  C         17.1980   13.4740   82.1570 C.3     1  UNK1        0.0942
      9  C         17.4950   13.4370   81.2180 C.3     1  UNK1        0.0819
     10  C         17.1130   14.3320   81.0630 C.3     1  UNK1        0.0497
     11  C         17.1810   14.7480   80.1710 C.3     1  UNK1        0.0768
     12  C         16.7000   15.4060   80.7250 C.3     1  UNK1        0.0308
     13  C         16.4090   16.2610   80.3310 C.3     1  UNK1        0.0329
     14  N         15.9280   16.9210   80.8850 N.ar    1  UNK1       -0.3391
     15  C         15.6940   16.8170   81.8360 C.ar    1  UNK1        0.0529
     16  C         15.8990   16.0360   82.4020 C.2     1  UNK1       -0.0222
     17  C         15.6220   16.0250   83.3470 C.2     1  UNK1       -0.0491
     18  C         16.3810   15.2650   82.0220 C.3     1  UNK1       -0.0153
     19  C         15.2190   17.6310   82.1230 C.ar    1  UNK1        0.0277
     20  C         15.1590   18.2380   81.3490 C.ar    1  UNK1       -0.0283
     21  C         15.5980   17.7990   80.5830 C.ar    1  UNK1        0.0499
     22  C         14.3120   20.0180   81.3350 C.ar    1  UNK1       -0.0618
     23  C         13.8980   20.3730   82.1550 C.ar    1  UNK1       -0.0618
     24  C         13.4740   21.2630   82.1490 C.ar    1  UNK1       -0.0618
     25  C         13.4650   21.7970   81.3210 C.ar    1  UNK1       -0.0618
     26  C         13.8800   21.4420   80.4990 C.ar    1  UNK1       -0.0618
     27  C         14.3040   20.5520   80.5070 C.ar    1  UNK1       -0.0618
     28  C         14.8650   17.8080   83.0260 C.3     1  UNK1        0.1851
     29  O         14.9740   17.1350   83.7390 O.3     1  UNK1       -0.2068
     30  N         14.4020   18.6560   83.2170 N.pl3   1  UNK1       -0.3130
     31  C         14.0480   18.8330   84.1200 C.ar    1  UNK1        0.0292
     32  C         13.5850   19.6820   84.3100 C.ar    1  UNK1       -0.0408
     33  C         13.2310   19.8580   85.2130 C.ar    1  UNK1       -0.0600
     34  C         13.3410   19.1850   85.9260 C.ar    1  UNK1       -0.0616
     35  C         13.8040   18.3370   85.7340 C.ar    1  UNK1       -0.0600
     36  C         14.1570   18.1600   84.8320 C.ar    1  UNK1       -0.0408
     37  O         14.6200   17.3110   84.6410 O.3     1  UNK1       -0.2279
     38  C         14.7300   16.6390   85.3530 C.3     1  UNK1        0.1085
     39  C         15.1920   15.7900   85.1630 C.ar    1  UNK1       -0.0117
     40  C         15.3020   15.1180   85.8750 C.ar    1  UNK1       -0.0557
     41  C         15.7650   14.2680   85.6840 C.ar    1  UNK1       -0.0614
     42  C         16.1180   14.0930   84.7810 C.ar    1  UNK1       -0.0612
     43  C         16.0090   14.7650   84.0690 C.ar    1  UNK1       -0.0542
     44  C         15.5460   15.6130   84.2600 C.ar    1  UNK1       -0.0192
     45  O         17.6290   14.2680   79.4370 O.3     1  UNK1       -0.3720
     46  C         18.0110   13.3730   79.5930 C.3     1  UNK1        0.0593
     47  O         17.9440   12.9570   80.4840 O.3     1  UNK1       -0.3711
     48  C         18.4900   12.5800   79.2590 C.3     1  UNK1       -0.0242
     49  C         18.3090   13.3360   78.6540 C.3     1  UNK1       -0.0242
     50  H         14.2930   19.3280   82.5060 H       1  UNK1        0.1489
     51  C         15.6900   18.1720   79.6760 C.ar    1  UNK1       -0.0013
     52  C         16.4660   18.7370   79.4520 C.ar    1  UNK1       -0.0499
     53  C         16.5580   19.1110   78.5450 C.ar    1  UNK1       -0.0258
     54  C         15.8740   18.9180   77.8620 C.ar    1  UNK1        0.1234
     55  C         15.0980   18.3540   78.0850 C.ar    1  UNK1       -0.0258
     56  F         15.9650   19.2920   76.9540 F       1  UNK1       -0.2055
     57  C         15.0060   17.9800   78.9930 C.ar    1  UNK1       -0.0499
     58 H          19.5527   11.7485   80.3942 H       1  UNK1        0.0306
     59 H          18.3313   11.1170   79.7621 H       1  UNK1        0.0306
     60 H          19.4127   10.8808   82.2514 H       1  UNK1        0.0306
     61 H          18.1613   10.0623   82.0198 H       1  UNK1        0.0306
     62 H          16.9207   12.6411   81.0664 H       1  UNK1        0.0600
     63 H          19.0285   12.8302   80.8852 H       1  UNK1        0.0600
     64 H          16.8254   13.6409   83.1460 H       1  UNK1        0.0447
     65 H          17.9778   12.4879   81.1135 H       1  UNK1        0.0611
     66 H          17.3234   15.0847   79.1654 H       1  UNK1        0.0609
     67 H          15.7666   16.0200   79.5099 H       1  UNK1        0.0498
     68 H          17.3312   16.7545   80.1054 H       1  UNK1        0.0498
     69 H          15.1522   16.9366   83.4628 H       1  UNK1        0.0627
     70 H          17.2848   15.1260   82.5777 H       1  UNK1        0.0321
     71 H          15.7226   14.4242   82.0895 H       1  UNK1        0.0321
     72 H          14.7148   19.1695   81.3415 H       1  UNK1        0.0643
     73 H          14.7546   19.0858   81.3430 H       1  UNK1        0.0618
     74 H          13.9080   19.8127   83.0216 H       1  UNK1        0.0618
     75 H          13.0403   21.6347   83.0085 H       1  UNK1        0.0618
     76 H          13.0211   22.7286   81.3133 H       1  UNK1        0.0618
     77 H          13.8701   22.0018   79.6321 H       1  UNK1        0.0618
     78 H          14.7393   20.1798   79.6485 H       1  UNK1        0.0618
     79 H          15.3696   18.4285   82.3152 H       1  UNK1        0.0892
     80 H          13.4709   20.3862   83.5642 H       1  UNK1        0.0636
     81 H          12.7452   20.7464   85.4126 H       1  UNK1        0.0618
     82 H          12.9715   19.3692   86.8718 H       1  UNK1        0.0618
     83 H          13.9193   17.6328   86.4796 H       1  UNK1        0.0618
     84 H          14.6407   17.2706   84.6322 H       1  UNK1        0.0636
     85 H          13.7475   16.3863   85.6933 H       1  UNK1        0.0642
     86 H          15.3830   17.1233   86.0487 H       1  UNK1        0.0642
     87 H          14.9329   15.3032   86.8208 H       1  UNK1        0.0621
     88 H          15.8794   13.5632   86.4291 H       1  UNK1        0.0618
     89 H          16.6028   13.2042   84.5807 H       1  UNK1        0.0618
     90 H          16.3797   14.5806   83.1237 H       1  UNK1        0.0624
     91 H          17.7260   13.3265   80.6233 H       1  UNK1        0.0596
     92 H          19.4901   12.3829   79.5843 H       1  UNK1        0.0291
     93 H          18.2898   11.5291   79.2371 H       1  UNK1        0.0291
     94 H          17.5902   13.2323   77.8682 H       1  UNK1        0.0291
     95 H          18.9068   13.9615   78.0245 H       1  UNK1        0.0291
     96 H          17.1823   18.9369   80.1675 H       1  UNK1        0.0625
     97 H          17.3694   19.7040   78.3105 H       1  UNK1        0.0646
     98 H          14.3818   18.1545   77.3693 H       1  UNK1        0.0646
     99 H          14.1939   17.3880   79.2277 H       1  UNK1        0.0625
@<TRIPOS>BOND
     1    56    54    1
     2    54    55   ar
     3    54    53   ar
     4    55    57   ar
     5    53    52   ar
     6    49    48    1
     7    49    46    1
     8    57    51   ar
     9    48    46    1
    10    45    46    1
    11    45    11    1
    12    52    51   ar
    13    51    21    1
    14    11    12    1
    15    11    10    1
    16    13    12    1
    17    13    14    1
    18    47     7    1
    19    47     9    1
    20    26    27   ar
    21    26    25   ar
    22    27    22   ar
    23    21    14   ar
    24    21    20   ar
    25    12    10    1
    26    12    18    1
    27     5     4    1
    28     5     6    1
    29     7     4    1
    30    14    15   ar
    31    10     9    1
    32    10     8    1
    33     9     8    1
    34    25    24   ar
    35    22    23   ar
    36    20    19   ar
    37     4     6    1
    38     4     3    1
    39    15    19   ar
    40    15    16    1
    41    18    16    1
    42    19    28    1
    43    24    23   ar
    44     8     2    1
    45    16    17    2
    46     3     2    1
    47    50    30    1
    48     2     1    2
    49    28    30    1
    50    28    29    1
    51    30    31    1
    52    17    44    1
    53    29    37    1
    54    43    44   ar
    55    43    42   ar
    56    31    32   ar
    57    31    36   ar
    58    44    39   ar
    59    32    33   ar
    60    37    38    1
    61    42    41   ar
    62    36    35   ar
    63    39    38    1
    64    39    40   ar
    65    33    34   ar
    66    41    40   ar
    67    35    34   ar
    68     5    58    1
    69     5    59    1
    70     6    60    1
    71     6    61    1
    72     7    62    1
    73     7    63    1
    74     8    64    1
    75     9    65    1
    76    11    66    1
    77    13    67    1
    78    13    68    1
    79    17    69    1
    80    18    70    1
    81    18    71    1
    82    20    72    1
    83    22    73    1
    84    23    74    1
    85    24    75    1
    86    25    76    1
    87    26    77    1
    88    27    78    1
    89    28    79    1
    90    32    80    1
    91    33    81    1
    92    34    82    1
    93    35    83    1
    94    36    84    1
    95    38    85    1
    96    38    86    1
    97    40    87    1
    98    41    88    1
    99    42    89    1
   100    43    90    1
   101    46    91    1
   102    48    92    1
   103    48    93    1
   104    49    94    1
   105    49    95    1
   106    52    96    1
   107    53    97    1
   108    55    98    1
   109    57    99    1

