#

@<TRIPOS>MOLECULE
tmp2.pdb
 103 108 0 0 0
SMALL
GASTEIGER

@<TRIPOS>ATOM
      1 N          12.2360   10.8820   64.1870 N.ar      1 LIG        -0.1679
      2 C          10.9210   10.8640   63.8450 C.ar      1 LIG         0.1933
      3 C1         10.1830   10.1710   64.8360 C.ar      1 LIG         0.1171
      4 C2         11.1140    9.8290   65.8380 C.ar      1 LIG         0.0714
      5 C3         12.3780   10.2720   65.3900 C.ar      1 LIG         0.2172
      6 C4         13.3390   11.3690   63.3350 C.3       1 LIG         0.1470
      7 C5         13.7870   10.3930   62.2490 C.3       1 LIG         0.0328
      8 C6         13.6490   10.9810   60.8330 C.3       1 LIG         0.0700
      9 C7         15.0350   11.0000   60.2050 C.3       1 LIG         0.0007
     10 C8         15.5120   12.4430   60.1430 C.3       1 LIG         0.0743
     11 O          14.6630   13.1420   59.2600 O.3       1 LIG        -0.3453
     12 C9         13.2840   13.0010   59.6310 C.3       1 LIG         0.1652
     13 O1         13.0620   12.2820   60.8560 O.3       1 LIG        -0.3457
     14 C10        12.7180   14.3950   59.8110 C.3       1 LIG        -0.0108
     15 C11        12.5150   12.3560   58.4830 C.3       1 LIG        -0.0108
     16 C12        16.9900   12.5320   59.7310 C.3       1 LIG         0.0714
     17 C13        17.4920   13.9360   59.6300 C.2       1 LIG         0.3118
     18 O2         17.8910   14.4980   60.6360 O.2       1 LIG        -0.2507
     19 O3         17.5840   14.5400   58.4300 O.3       1 LIG        -0.4322
     20 C14        16.9970   15.7630   58.1880 C.3       1 LIG         0.2341
     21 C15        16.0190   15.7630   57.0030 C.3       1 LIG         0.1456
     22 C16        16.7870   15.3990   55.7570 C.3       1 LIG         0.1157
     23 C17        18.0590   16.2540   55.6320 C.3       1 LIG         0.1202
     24 C18        18.2820   17.2430   56.8080 C.3       1 LIG         0.1869
     25 O4         18.0230   16.7340   58.1120 O.3       1 LIG        -0.3220
     26 O5         14.9620   14.8740   57.2040 O.3       1 LIG        -0.3829
     27 H          14.7470   14.5570   58.0960 H         1 LIG         0.2102
     28 O6         15.9620   15.4970   54.6320 O.3       1 LIG        -0.3863
     29 H1         15.1140   15.0260   54.6090 H         1 LIG         0.2100
     30 O7         18.0760   16.9530   54.4210 O.3       1 LIG        -0.3860
     31 H2         17.4960   17.7190   54.2890 H         1 LIG         0.2100
     32 C19        19.7020   17.7390   56.7650 C.2       1 LIG         0.3367
     33 O8         20.4310   17.4320   55.8350 O.2       1 LIG        -0.2480
     34 O9         20.1810   18.5210   57.7530 O.3       1 LIG        -0.4788
     35 H3         20.2620   18.1970   58.6280 H         1 LIG         0.2951
     36 C20        13.7150   10.0870   66.0630 C.ar      1 LIG         0.0464
     37 C21        14.0970   10.9180   67.1310 C.ar      1 LIG        -0.0456
     38 C22        15.3270   10.7580   67.7710 C.ar      1 LIG        -0.0257
     39 C23        16.2040    9.7620   67.3470 C.ar      1 LIG         0.1234
     40 C24        15.8560    8.9380   66.2780 C.ar      1 LIG        -0.0257
     41 F          17.3940    9.5970   67.9740 F         1 LIG        -0.2055
     42 C25        14.6230    9.1050   65.6400 C.ar      1 LIG        -0.0456
     43 C26        10.4360   11.6270   62.6270 C.3       1 LIG         0.0386
     44 C27         9.9000   10.9010   61.4230 C.3       1 LIG        -0.0531
     45 C28         9.3860   12.6300   63.0690 C.3       1 LIG        -0.0531
     46 C29        10.8020    9.1520   67.1350 C.ar      1 LIG        -0.0107
     47 C30        10.7700    9.8920   68.3270 C.ar      1 LIG        -0.0538
     48 C31        10.4240    9.2890   69.5370 C.ar      1 LIG        -0.0612
     49 C32        10.0960    7.9330   69.5710 C.ar      1 LIG        -0.0617
     50 C33        10.1190    7.1820   68.3940 C.ar      1 LIG        -0.0612
     51 C34        10.4660    7.7890   67.1850 C.ar      1 LIG        -0.0538
     52 C35         8.7010    9.8780   64.8730 C.2       1 LIG         0.2551
     53 O10         8.1500    9.3810   63.9050 O.2       1 LIG        -0.2696
     54 N1          7.9640   10.2090   65.9610 N.am      1 LIG        -0.2813
     55 H4          8.4680   10.5560   66.7330 H         1 LIG         0.1551
     56 C36         6.5530   10.1190   66.1270 C.ar      1 LIG         0.0337
     57 C37         5.9080    8.9060   66.4160 C.ar      1 LIG        -0.0405
     58 C38         4.5140    8.8630   66.5410 C.ar      1 LIG        -0.0600
     59 C39         3.7600   10.0280   66.3800 C.ar      1 LIG        -0.0616
     60 C40         4.3950   11.2370   66.0880 C.ar      1 LIG        -0.0600
     61 C41         5.7860   11.2790   65.9560 C.ar      1 LIG        -0.0405
     62 H5         13.0190   12.2720   62.8590 H         1 LIG         0.1024
     63 H6         14.1800   11.5080   63.9810 H         1 LIG         0.1024
     64 H7         14.8130   10.1400   62.4170 H         1 LIG         0.0352
     65 H8         13.1550    9.5320   62.3060 H         1 LIG         0.0352
     66 H9         12.9900   10.3750   60.2480 H         1 LIG         0.0600
     67 H10        15.7100   10.4210   60.8000 H         1 LIG         0.0315
     68 H11        14.9990   10.5810   59.2210 H         1 LIG         0.0315
     69 H12        15.4600   12.8920   61.1130 H         1 LIG         0.0603
     70 H13        12.8670   14.9590   58.9140 H         1 LIG         0.0281
     71 H14        13.2160   14.8800   60.6240 H         1 LIG         0.0281
     72 H15        11.6710   14.3300   60.0220 H         1 LIG         0.0281
     73 H16        12.6930   12.9050   57.5820 H         1 LIG         0.0281
     74 H17        11.4680   12.3650   58.7050 H         1 LIG         0.0281
     75 H18        12.8440   11.3460   58.3560 H         1 LIG         0.0281
     76 H19        17.5770   12.0130   60.4590 H         1 LIG         0.0403
     77 H20        17.0750   12.0940   58.7580 H         1 LIG         0.0403
     78 H21        16.3510   16.0150   59.0030 H         1 LIG         0.1085
     79 H22        15.5880   16.7370   56.9040 H         1 LIG         0.0683
     80 H23        17.1060   14.3800   55.8270 H         1 LIG         0.0648
     81 H24        18.8680   15.5540   55.6650 H         1 LIG         0.0652
     82 H25        17.5610   18.0190   56.6560 H         1 LIG         0.0742
     83 H26        13.4550   11.6610   67.4480 H         1 LIG         0.0626
     84 H27        15.5860   11.3760   68.5560 H         1 LIG         0.0646
     85 H28        16.5080    8.2050   65.9580 H         1 LIG         0.0646
     86 H29        14.3770    8.4950   64.8440 H         1 LIG         0.0626
     87 H30        11.3530   12.0360   62.2570 H         1 LIG         0.0402
     88 H31         8.9660   10.4400   61.6710 H         1 LIG         0.0237
     89 H32        10.5990   10.1500   61.1190 H         1 LIG         0.0237
     90 H33         9.7540   11.5960   60.6230 H         1 LIG         0.0237
     91 H34         8.5190   12.1090   63.4170 H         1 LIG         0.0237
     92 H35         9.1190   13.2540   62.2420 H         1 LIG         0.0237
     93 H36         9.7800   13.2340   63.8590 H         1 LIG         0.0237
     94 H37        11.0060   10.8960   68.3080 H         1 LIG         0.0624
     95 H38        10.4110    9.8450   70.4060 H         1 LIG         0.0618
     96 H39         9.8370    7.4860   70.4640 H         1 LIG         0.0618
     97 H40         9.8800    6.1780   68.4180 H         1 LIG         0.0618
     98 H41        10.4760    7.2290   66.3180 H         1 LIG         0.0624
     99 H42         6.4630    8.0440   66.5370 H         1 LIG         0.0636
    100 H43         4.0430    7.9690   66.7520 H         1 LIG         0.0618
    101 H44         2.7330    9.9950   66.4770 H         1 LIG         0.0618
    102 H45         3.8380   12.0980   65.9700 H         1 LIG         0.0618
    103 H46         6.2520   12.1720   65.7310 H         1 LIG         0.0636
@<TRIPOS>BOND
     1   31   30 1  
     2   30   23 1  
     3   29   28 1  
     4   28   22 1  
     5   23   81 1  
     6   23   22 1  
     7   23   24 1  
     8   22   80 1  
     9   22   21 1  
    10   33   32 2  
    11   82   24 1  
    12   32   24 1  
    13   32   34 1  
    14   24   25 1  
    15   79   21 1  
    16   21   26 1  
    17   21   20 1  
    18   26   27 1  
    19   73   15 1  
    20   34   35 1  
    21   25   20 1  
    22   20   19 1  
    23   20   78 1  
    24   75   15 1  
    25   19   17 1  
    26   15   74 1  
    27   15   12 1  
    28   77   16 1  
    29   70   14 1  
    30   68    9 1  
    31   11   12 1  
    32   11   10 1  
    33   17   16 1  
    34   17   18 2  
    35   12   14 1  
    36   12   13 1  
    37   16   10 1  
    38   16   76 1  
    39   14   72 1  
    40   14   71 1  
    41   10    9 1  
    42   10   69 1  
    43    9   67 1  
    44    9    8 1  
    45   66    8 1  
    46   90   44 1  
    47    8   13 1  
    48    8    7 1  
    49   89   44 1  
    50   44   88 1  
    51   44   43 1  
    52   92   45 1  
    53    7   65 1  
    54    7   64 1  
    55    7    6 1  
    56   87   43 1  
    57   43   45 1  
    58   43    2 1  
    59   62    6 1  
    60   45   91 1  
    61   45   93 1  
    62    6   63 1  
    63    6    1 1  
    64    2    1 1  
    65    2    3 2  
    66   53   52 2  
    67    1    5 1  
    68    3   52 1  
    69    3    4 1  
    70   86   42 1  
    71   52   54 am 
    72    5    4 2  
    73    5   36 1  
    74   42   36 2  
    75   42   40 1  
    76  103   61 1  
    77    4   46 1  
    78   61   60 2  
    79   61   56 1  
    80   85   40 1  
    81   54   56 1  
    82   54   55 1  
    83  102   60 1  
    84   36   37 1  
    85   60   59 1  
    86   56   57 2  
    87   40   39 2  
    88   98   51 1  
    89   59  101 1  
    90   59   58 2  
    91   57   99 1  
    92   57   58 1  
    93   58  100 1  
    94   37   83 1  
    95   37   38 2  
    96   46   51 2  
    97   46   47 1  
    98   51   50 1  
    99   39   38 1  
   100   39   41 1  
   101   38   84 1  
   102   94   47 1  
   103   47   48 2  
   104   50   97 1  
   105   50   49 2  
   106   48   49 1  
   107   48   95 1  
   108   49   96 1  
